FoamFile
{
    version     2.0;
    foamVersion	4.x;
    format      ascii;
    class       volScalarField;
    object      k;
}

dimensions      [0 2 -2 0 0 0 0];

internalField   uniform 1e-15;

boundaryField
{
    inlet
    {
        type            turbulentIntensityKineticEnergyInlet;
        intensity       0.05;
        value           $internalField;
    }

    outlet
    {
        type            inletOutlet;
        inletValue      $internalField;
        value           $internalField;
    }

    walls
    {
        type            kLowReWallFunction;
        value           $internalField;
    }
}

// vi: set ft=foam et sw=4 ts=4:
