FoamFile
{
    version     2.0;
    foamVersion 4.x;
    format      ascii;
    class       volScalarField;
    object      omega;
}

dimensions      [0 0 -1 0 0 0 0];

internalField   uniform 1;

boundaryField
{
    inlet
    {
        type            turbulentMixingLengthFrequencyInlet;
        mixingLength    0.07;
        value           uniform 1;
    }

    outlet
    {
        type            inletOutlet;
        inletValue      $internalField;
        value           $internalField;
    }

    walls
    {
        type            omegaWallFunction;
        value           $internalField;
    }
}

// vi: set ft=foam et sw=4 ts=4:
