FoamFile
{
    version     2.0;
    foamVersion 4.x;
    format      ascii;
    class       volVectorField;
    location    "0";
    object      U;
}

dimensions      [0 1 -1 0 0 0 0];

internalField   uniform (0 0 0);

boundaryField
{
    inlet
    {
      type              fixedValue;
      value             uniform (1e-3 0 0);
    }

    outlet
    {
        type            inletOutlet;
        inletValue      uniform (0 0 0);
        value           uniform (0 0 0);
    }

    walls
    {
        type            noSlip;
    }
}

// vi: set ft=foam et sw=4 ts=4:
