FoamFile
{
  version     2.0;
  format      ascii;
  class       volScalarField;
  location    "0";
  object      nut;
}

dimensions      [0 2 -1 0 0 0 0];

internalField   uniform 0;

boundaryField
{
  inner-wall
  {
    type            zeroGradient;
  }
  outer-wall
  {
    type            nutkWallFunction;
    value           uniform 0;
  }
  left-wall
  {
    type            nutkWallFunction;
    value           uniform 0;
  }
  right-wall
  {
    type            nutkWallFunction;
    value           uniform 0;
  }
  w1
  {
    type            wedge;
  }
  w2
  {
    type            wedge;
  }
}

// vi: set ft=foam et sw=2 ts=2 sts=2:

