FoamFile
{
  version     2.0;
  format      ascii;
  class       volScalarField;
  object      p;
}

dimensions      [0 2 -2 0 0 0 0];

internalField   uniform 0;

boundaryField
{
  inner-wall
  {
    type            calculated;
    value           $internalField;
  }
  outer-wall
  {
    type            calculated;
    value           $internalField;
  }
  left-wall
  {
    type            calculated;
    value           $internalField;
  }
  right-wall
  {
    type            calculated;
    value           $internalField;
  }
  w1
  {
    type            wedge;
  }
  w2
  {
    type            wedge;
  }
}

// vi: set ft=foam et sw=2 ts=2 sts=2:
