FoamFile
{
    version     2.0;
    format      ascii;
    class       volScalarField;
    object      p_rgh;
}

dimensions      [0 2 -2 0 0 0 0];

internalField   uniform 0;

boundaryField
{
    top
    {
        type            fixedFluxPressure;
        rho             rhok;
        value           uniform 0;
    }

    bottom
    {
        type            fixedFluxPressure;
        rho             rhok;
        value           uniform 0;
    }
}
