FoamFile
{
    version     2.0;
    format      ascii;
    class       dictionary;
    location    "system";
    object      controlDict;
}

application     potentialFoam;

startFrom       startTime;

startTime       0;

stopAt          endTime;

endTime         1;

deltaT          1;

writeControl    timeStep;

writeInterval   1;

purgeWrite      0;

writeFormat     binary;

writePrecision  12;

writeCompression on;

timeFormat      general;

timePrecision   12;

runTimeModifiable true;

