FoamFile
{
    version     2.0;
    format      ascii;
    class       dictionary;
    object      topoSetDict;
}

actions
(
  {
    name    c0;
    type    cellSet;
    action  new;

    source boxToCell;
    sourceInfo
    {
      box (0.15 -1.1 -1) (0.35 -0.9 1);
    }
  }

  {
    name deposition-volume;
    type cellZoneSet;
    action new;

    source setToCellZone;
    sourceInfo
    {
      set c0;
    }
  }

  {
    name c0;
    type cellSet;
    action remove;
  }
);

// vi: set ft=foam et sw=2 ts=2 sts=2:
