FoamFile
{
    version     2.0;
    foamVersion	4.x;
    format      ascii;
    class       dictionary;
    object      transportProperties;
}

transportModel  Newtonian;

nu              [ m^2 s^-1 ] 1e-6;

// vi: set ft=foam et sw=4 ts=4:
