FoamFile
{
    version     2.0;
    foamVersion 4.x;
    format      ascii;
    class       dictionary;
    object      turbulenceProperties;
}

simulationType RAS;

RAS
{
    RASModel            kOmegaSST;
    turbulence          on;
    printCoeffs         on;
}

// vi: set ft=foam et sw=4 ts=4:
