FoamFile
{
  version 2.0;
  format ascii;
  class dictionary;
  object controlDict;
}

application pimpleFoam;

startFrom latestTime;
startTime 0;
stopAt endTime;
endTime 0.2;
deltaT 1e-4;

writeControl adjustableRunTime;
writeInterval 0.01;
purgeWrite 0;
writeFormat binary;
writePrecision 8;
writeCompression off;

timeFormat general;
timePrecision 6;

runTimeModifiable true;

adjustTimeStep yes;
maxCo 0.8;

functions
{
  vol-averaged-velocity
  {
    type volFieldValue;
    libs ("libfieldFunctionObjects.so");

    log true;

    writeControl adjustableRunTime;
    writeInterval 1e-3;
    writeFields false;

    regionType cellZone;
    name porous-zone;
    operation volAverage;

    fields
    (
      U
    );
  }

  pressure-delta
  {
    type fieldValueDelta;
    libs ("libfieldFunctionObjects.so");
    operation subtract;

    writeControl adjustableRunTime;
    writeInterval 1e-3;
    writeFields false;

    region1
    {
      type surfaceFieldValue;
      libs ("libfieldFunctionObjects.so");

      log true;

      writeControl adjustableRunTime;
      writeInterval 1e-3;
      writeFields false;

      regionType sampledSurface;
      name porous-zone-inlet;
      sampledSurfaceDict
      {
        type plane;
        planeType pointAndNormal;
        pointAndNormalDict
        {
          point (0.5e-3 0 0);
          normal (1 0 0);
        }
      }

      operation areaAverage;

      fields
      (
        p
      );
    }

    region2
    {
      type surfaceFieldValue;
      libs ("libfieldFunctionObjects.so");

      log true;

      writeControl adjustableRunTime;
      writeInterval 1e-3;
      writeFields false;

      regionType sampledSurface;
      name porous-zone-outlet;
      sampledSurfaceDict
      {
        type plane;
        planeType pointAndNormal;
        pointAndNormalDict
        {
          point (1.5e-3 0 0);
          normal (1 0 0);
        }
      }

      operation areaAverage;

      fields
      (
        p
      );
    }
  }
}

// vi: set ft=foam et sw=2 ts=2 sts=2:
