FoamFile
{
  version 2.0;
  format ascii;
  class dictionary;
  object topoSetDict;
}

actions
(
  {
    name    porous-zone;
    type    cellZoneSet;
    action  new;
    source  boxToCell;
    sourceInfo
    {
      box (0.5e-3 -1 -1) (1.5e-3 1 1);
    }
  }
);

// vi: set ft=foam et sw=2 ts=2 sts=2:
