FoamFile
{
    version     2.0;
    format      ascii;
    class       volScalarField;
    location    "0";
    object      k;
}

dimensions      [0 2 -2 0 0 0 0];

internalField   uniform 0.0009375;

boundaryField
{
    inlet
    {
        type            turbulentIntensityKineticEnergyInlet;
	intensity       0.05;
        value           $internalField;
    }
    injector
    {
        type            turbulentIntensityKineticEnergyInlet;
        intensity       0.05;
        value           $internalField;
    }
    outlet
    {
        type            zeroGradient;
    }
    walls
    {
        type            kqRWallFunction;
        value           $internalField;
    }
    front-n-back
    {
        type            empty;
    }
}

