FoamFile
{
    version     2.0;
    format      ascii;
    class       volScalarField;
    location    "0";
    object      omega;
}

dimensions      [0 0 -1 0 0 0 0];

internalField   uniform 1e-12;

boundaryField
{
    inlet
    {
        type            turbulentMixingLengthFrequencyInlet;
        mixingLength    0.06695652173913;
        value           $internalField;
    }
    injector
    {
        type            turbulentMixingLengthFrequencyInlet;
        mixingLength    0.0007;
        value           $internalField;
    }
    outlet
    {
        type            zeroGradient;
    }
    walls
    {
        type            omegaWallFunction;
        value           $internalField;
    }
    front-n-back
    {
        type            empty;
    }
}
