FoamFile
{
    version     2.0;
    format      ascii;
    class       dictionary;
    location    "system";
    object      controlDict;
}

application     buoyantBoussinesqPimpleFoam;

startFrom       startTime;

startTime       0;

stopAt          endTime;

endTime         18000;

deltaT          0.1;

writeControl    adjustableRunTime;

writeInterval   600;

purgeWrite      0;

writeFormat     binary;

writePrecision  12;

writeCompression off;

timeFormat      general;

timePrecision   6;

runTimeModifiable true;

adjustTimeStep  yes;

maxCo           0.5;
