FoamFile
{
  version     2.0;
  format      ascii;
  class       dictionary;
  location    "system";
  object      fvSchemes;
}

ddtSchemes
{
  default         CrankNicolson 1.0;
}

gradSchemes
{
  default         Gauss linear;
}

divSchemes
{
  default         none;

  div(phi,U)      bounded Gauss vanLeerV;
  div(phi,k)      bounded Gauss vanLeer;
  div(phi,epsilon)      bounded Gauss vanLeer;
  div((nuEff*dev2(T(grad(U))))) Gauss linear;
}

laplacianSchemes
{
  default         Gauss linear orthogonal;
}

interpolationSchemes
{
  default         linear;
}

snGradSchemes
{
  default         orthogonal;
}

// vi: set ft=foam et sw=2 ts=2 sts=2:
