FoamFile
{
    version     2.0;
    format      ascii;
    class       dictionary;
    object      probesDict;
}

fields
(
    DDt(U)
);

probeLocations
(
    (1e-3 1e-3 5e-3)
);

// ****************** vi: set ft=foam et sw=4 ts=4 sts=4: ****************** //
